38

F     -8.744536   -5.350664   -1.463253
C     -7.609624   -5.044411   -1.717125
F     -6.894938   -6.153440   -1.959859
C     -7.489627   -4.081351   -2.924585
F     -6.781046   -4.554494   -3.850443
F     -8.681381   -3.872737   -3.420433
C     -6.913057   -2.798353   -2.341003
F     -5.961699   -2.303843   -3.091923
C     -7.992240   -1.686454   -2.246039
F     -7.882790   -0.881222   -3.248252
C     -7.981062   -0.942516   -0.935948
O     -8.448666   -1.661390    0.085868
O     -7.491951    0.154996   -0.793044
F     -9.146015   -2.262849   -2.338214
C     -6.401093   -3.160197   -0.966103
F     -6.685770   -2.267324   -0.072966
C     -4.855080   -3.301002   -0.974855
F     -4.570616   -4.188194   -1.877352
C     -4.130034   -2.030562   -1.336348
N     -2.753639   -2.068483   -1.197957
C     -2.077061   -1.035441   -0.577657
C     -2.766624    0.011103    0.005380
C     -2.075403    1.053680    0.596733
C     -2.783915    2.093925    1.196646
N     -3.347055    2.967284    1.701694
C     -0.688540    1.042552    0.598964
C      0.000000    0.000000    0.000000
C      1.418456   -0.000000   -0.000000
N      2.566200    0.033596    0.018990
C     -0.699680   -1.031649   -0.594778
O     -4.716887   -1.003621   -1.625504
F     -4.460793   -3.763072    0.164272
O     -6.997957   -4.409820   -0.590247
H     -8.878222   -2.439002   -0.218857
H     -2.275215   -2.832254   -1.487502
H     -3.834774    0.012837    0.000781
H     -0.156520    1.850501    1.066566
H     -0.156997   -1.835401   -1.059763
